*SPEF "ieee 1481-1999"
*DESIGN "user_proj_timer"
*DATE "14:46:12 Tuesday September 30, 2025"
*VENDOR "The OpenROAD Project"
*PROGRAM "OpenROAD"
*VERSION "edf00dff99f6c40d67a30c0e22a8191c5d2ed9d6"
*DESIGN_FLOW "NAME_SCOPE LOCAL" "PIN_CAP NONE"
*DIVIDER /
*DELIMITER :
*BUS_DELIMITER []
*T_UNIT 1 NS
*C_UNIT 1 PF
*R_UNIT 1 OHM
*L_UNIT 1 HENRY

*NAME_MAP
*1 io_in[0]
*2 io_in[10]
*3 io_in[1]
*4 io_in[2]
*5 io_in[3]
*6 io_in[4]
*7 io_in[5]
*8 io_in[6]
*9 io_in[7]
*10 io_in[8]
*11 io_in[9]
*12 net20
*13 net30
*14 net21
*15 net22
*16 net23
*17 net24
*18 net25
*19 net26
*20 net27
*21 net28
*22 net29
*23 io_out[0]
*24 io_out[10]
*25 io_out[1]
*26 io_out[2]
*27 io_out[3]
*28 io_out[4]
*29 io_out[5]
*30 io_out[6]
*31 io_out[7]
*32 io_out[8]
*33 io_out[9]
*36 wb_clk_i
*37 wb_rst_i
*38 _000_
*39 _001_
*40 _002_
*41 _003_
*42 _004_
*43 _005_
*44 _006_
*45 _007_
*46 _008_
*47 _009_
*48 _010_
*49 _011_
*50 _012_
*51 _013_
*52 _014_
*53 _015_
*54 _016_
*55 _017_
*56 _018_
*57 _019_
*58 _020_
*59 _021_
*60 _022_
*61 _023_
*62 _024_
*63 _025_
*64 _026_
*65 _027_
*66 _028_
*67 _029_
*68 _030_
*69 _031_
*70 _032_
*71 _033_
*72 _034_
*73 _035_
*74 _036_
*75 _037_
*76 _038_
*77 _039_
*78 _040_
*79 _041_
*80 _042_
*81 _043_
*82 _044_
*83 _045_
*84 _046_
*85 _047_
*86 _048_
*87 _049_
*88 _050_
*89 _051_
*90 _052_
*91 _053_
*92 _054_
*93 _055_
*94 _056_
*95 _057_
*96 _058_
*97 _059_
*98 _060_
*99 _061_
*100 _062_
*101 _063_
*102 _064_
*103 _065_
*104 _066_
*105 _067_
*106 _068_
*107 _069_
*108 _070_
*109 _071_
*110 _072_
*111 _073_
*112 _074_
*113 _075_
*114 _076_
*115 _077_
*116 _078_
*117 _079_
*118 _080_
*119 _081_
*120 _082_
*121 _083_
*122 _084_
*123 _085_
*124 _086_
*125 _087_
*126 _088_
*127 _089_
*128 _090_
*129 _091_
*130 _092_
*131 _093_
*132 _094_
*133 _095_
*134 _096_
*135 _097_
*136 _098_
*137 _099_
*138 _100_
*139 _101_
*140 _102_
*141 _103_
*142 _104_
*143 _105_
*144 _106_
*145 _107_
*146 _108_
*147 _109_
*148 _110_
*149 _111_
*150 _112_
*151 _113_
*152 _114_
*153 _115_
*154 _116_
*155 _117_
*156 _118_
*157 _119_
*158 _120_
*159 _121_
*160 _122_
*161 _123_
*162 _124_
*163 _125_
*164 _126_
*165 _127_
*166 _128_
*167 _129_
*168 _130_
*169 _131_
*170 _132_
*171 _133_
*172 _134_
*173 _135_
*174 _136_
*175 _137_
*176 _138_
*177 _139_
*178 _140_
*179 _141_
*180 _142_
*181 _143_
*182 _144_
*183 _145_
*184 _146_
*185 _147_
*186 _148_
*187 _149_
*188 _150_
*189 _151_
*190 _152_
*191 _153_
*192 _154_
*193 _155_
*194 _156_
*195 _157_
*196 _158_
*197 _159_
*198 _160_
*199 _161_
*200 _162_
*201 _163_
*202 _164_
*203 _165_
*204 _166_
*205 _167_
*206 _168_
*207 _169_
*208 _170_
*209 _171_
*210 _172_
*211 _173_
*212 _174_
*213 _175_
*214 _176_
*215 _177_
*216 _178_
*217 _179_
*218 _180_
*219 _181_
*220 _182_
*221 _183_
*222 _184_
*223 _185_
*224 _186_
*225 _187_
*226 _188_
*227 _189_
*228 _190_
*229 _191_
*230 _192_
*231 _193_
*232 _194_
*233 _195_
*234 _196_
*235 _197_
*236 _198_
*237 _199_
*238 _200_
*239 _201_
*240 _202_
*241 _203_
*242 _204_
*243 _205_
*244 _206_
*245 _207_
*246 _208_
*247 _209_
*248 _210_
*249 _211_
*250 _212_
*251 _213_
*252 _214_
*253 _215_
*254 _216_
*255 _217_
*256 _218_
*257 _219_
*258 _220_
*259 _221_
*260 _222_
*261 _223_
*262 _224_
*263 _225_
*264 _226_
*265 _227_
*266 _228_
*267 _229_
*268 _230_
*269 _231_
*270 _232_
*271 _233_
*272 _234_
*273 _235_
*274 _236_
*275 _237_
*276 _238_
*277 _239_
*278 _240_
*279 _241_
*280 _242_
*281 _243_
*282 _244_
*283 _245_
*284 _246_
*285 _247_
*286 _248_
*287 _249_
*288 _250_
*289 _251_
*290 _252_
*291 _253_
*292 _254_
*293 _255_
*294 _256_
*295 _257_
*296 _258_
*297 _259_
*298 _260_
*299 _261_
*300 _262_
*301 _263_
*302 _264_
*303 _265_
*304 _266_
*305 _267_
*306 _268_
*307 _269_
*308 _270_
*309 _271_
*310 _272_
*311 _273_
*312 _274_
*313 _275_
*314 _276_
*315 _277_
*316 _278_
*317 _279_
*318 _280_
*319 _281_
*320 _282_
*321 _283_
*322 _284_
*323 _285_
*324 _286_
*325 _287_
*326 _288_
*327 _289_
*328 _290_
*329 _291_
*330 _292_
*331 _293_
*332 _294_
*333 _295_
*334 _296_
*335 _297_
*336 _298_
*337 _299_
*338 _300_
*339 _301_
*340 _302_
*341 _303_
*342 _304_
*343 _305_
*344 _306_
*345 _307_
*346 _308_
*347 _309_
*348 _310_
*349 _311_
*350 _312_
*351 _313_
*352 _314_
*353 _315_
*354 _316_
*355 _317_
*356 _318_
*357 _319_
*358 _320_
*359 _321_
*360 _322_
*361 _323_
*362 _324_
*363 _325_
*364 _326_
*365 _327_
*366 _328_
*367 _329_
*368 _330_
*369 _331_
*370 clknet_0_wb_clk_i
*371 clknet_3_0__leaf_wb_clk_i
*372 clknet_3_1__leaf_wb_clk_i
*373 clknet_3_2__leaf_wb_clk_i
*374 clknet_3_3__leaf_wb_clk_i
*375 clknet_3_4__leaf_wb_clk_i
*376 clknet_3_5__leaf_wb_clk_i
*377 clknet_3_6__leaf_wb_clk_i
*378 clknet_3_7__leaf_wb_clk_i
*379 net1
*380 net10
*381 net100
*382 net101
*383 net102
*384 net103
*385 net104
*386 net105
*387 net106
*388 net107
*389 net108
*390 net109
*391 net11
*392 net110
*393 net111
*394 net112
*395 net113
*396 net114
*397 net115
*398 net116
*399 net117
*400 net118
*401 net119
*402 net12
*403 net120
*404 net121
*405 net122
*406 net123
*407 net124
*408 net125
*409 net126
*410 net127
*411 net128
*412 net129
*413 net13
*414 net130
*415 net131
*416 net132
*417 net133
*418 net134
*419 net135
*420 net136
*421 net137
*422 net138
*423 net139
*424 net14
*425 net140
*426 net141
*427 net142
*428 net143
*429 net144
*430 net145
*431 net146
*432 net147
*433 net148
*434 net149
*435 net15
*436 net150
*437 net151
*438 net152
*439 net153
*440 net154
*441 net155
*442 net156
*443 net157
*444 net158
*445 net159
*446 net16
*447 net160
*448 net161
*449 net162
*450 net163
*451 net164
*452 net165
*453 net166
*454 net167
*455 net168
*456 net169
*457 net17
*458 net170
*459 net171
*460 net172
*461 net173
*462 net174
*463 net175
*464 net176
*465 net177
*466 net178
*467 net179
*468 net18
*469 net180
*470 net181
*471 net182
*472 net183
*473 net184
*474 net185
*475 net186
*476 net187
*477 net188
*478 net189
*479 net19
*480 net190
*481 net191
*482 net192
*483 net193
*484 net194
*485 net195
*486 net196
*487 net197
*488 net198
*489 net199
*490 net2
*491 net3
*492 net31
*493 net32
*494 net33
*495 net34
*496 net35
*497 net36
*498 net37
*499 net38
*500 net39
*501 net4
*502 net40
*503 net41
*504 net42
*505 net43
*506 net44
*507 net45
*508 net46
*509 net47
*510 net48
*511 net49
*512 net5
*513 net50
*514 net51
*515 net52
*516 net53
*517 net54
*518 net55
*519 net56
*520 net57
*521 net58
*522 net59
*523 net6
*524 net60
*525 net61
*526 net62
*527 net63
*528 net64
*529 net65
*530 net66
*531 net67
*532 net68
*533 net69
*534 net7
*535 net70
*536 net71
*537 net72
*538 net73
*539 net74
*540 net75
*541 net76
*542 net77
*543 net78
*544 net79
*545 net8
*546 net80
*547 net81
*548 net82
*549 net83
*550 net84
*551 net85
*552 net86
*553 net87
*554 net88
*555 net89
*556 net9
*557 net90
*558 net91
*559 net92
*560 net93
*561 net94
*562 net95
*563 net96
*564 net97
*565 net98
*566 net99
*567 timer\.dig_cnt\[0\]
*568 timer\.dig_cnt\[1\]
*569 timer\.min_ones\[0\]
*570 timer\.min_ones\[1\]
*571 timer\.min_ones\[2\]
*572 timer\.min_ones\[3\]
*573 timer\.min_tens\[0\]
*574 timer\.min_tens\[1\]
*575 timer\.min_tens\[2\]
*576 timer\.min_tens\[3\]
*577 timer\.scan
*578 timer\.scan_div\[0\]
*579 timer\.scan_div\[10\]
*580 timer\.scan_div\[11\]
*581 timer\.scan_div\[12\]
*582 timer\.scan_div\[13\]
*583 timer\.scan_div\[14\]
*584 timer\.scan_div\[15\]
*585 timer\.scan_div\[16\]
*586 timer\.scan_div\[17\]
*587 timer\.scan_div\[18\]
*588 timer\.scan_div\[19\]
*589 timer\.scan_div\[1\]
*590 timer\.scan_div\[20\]
*591 timer\.scan_div\[21\]
*592 timer\.scan_div\[22\]
*593 timer\.scan_div\[23\]
*594 timer\.scan_div\[24\]
*595 timer\.scan_div\[25\]
*596 timer\.scan_div\[26\]
*597 timer\.scan_div\[27\]
*598 timer\.scan_div\[28\]
*599 timer\.scan_div\[29\]
*600 timer\.scan_div\[2\]
*601 timer\.scan_div\[30\]
*602 timer\.scan_div\[31\]
*603 timer\.scan_div\[3\]
*604 timer\.scan_div\[4\]
*605 timer\.scan_div\[5\]
*606 timer\.scan_div\[6\]
*607 timer\.scan_div\[7\]
*608 timer\.scan_div\[8\]
*609 timer\.scan_div\[9\]
*610 timer\.sec
*611 timer\.sec_div\[0\]
*612 timer\.sec_div\[10\]
*613 timer\.sec_div\[11\]
*614 timer\.sec_div\[12\]
*615 timer\.sec_div\[13\]
*616 timer\.sec_div\[14\]
*617 timer\.sec_div\[15\]
*618 timer\.sec_div\[16\]
*619 timer\.sec_div\[17\]
*620 timer\.sec_div\[18\]
*621 timer\.sec_div\[19\]
*622 timer\.sec_div\[1\]
*623 timer\.sec_div\[20\]
*624 timer\.sec_div\[21\]
*625 timer\.sec_div\[22\]
*626 timer\.sec_div\[23\]
*627 timer\.sec_div\[24\]
*628 timer\.sec_div\[25\]
*629 timer\.sec_div\[26\]
*630 timer\.sec_div\[27\]
*631 timer\.sec_div\[28\]
*632 timer\.sec_div\[29\]
*633 timer\.sec_div\[2\]
*634 timer\.sec_div\[30\]
*635 timer\.sec_div\[31\]
*636 timer\.sec_div\[3\]
*637 timer\.sec_div\[4\]
*638 timer\.sec_div\[5\]
*639 timer\.sec_div\[6\]
*640 timer\.sec_div\[7\]
*641 timer\.sec_div\[8\]
*642 timer\.sec_div\[9\]
*643 timer\.sec_ones\[0\]
*644 timer\.sec_ones\[1\]
*645 timer\.sec_ones\[2\]
*646 timer\.sec_ones\[3\]
*647 timer\.sec_tens\[0\]
*648 timer\.sec_tens\[1\]
*649 timer\.sec_tens\[2\]
*650 timer\.sec_tens\[3\]
*651 ANTENNA__355__Y
*652 ANTENNA__356__Y
*653 ANTENNA__563__X
*654 ANTENNA__565__Y
*655 ANTENNA__569__C1
*656 ANTENNA__571__A2
*657 ANTENNA__572__A2
*658 ANTENNA__575__C1
*659 ANTENNA__577__A2
*660 ANTENNA__579__A2
*661 ANTENNA__579__B1
*662 ANTENNA__580__A2
*663 ANTENNA__580__B1
*664 ANTENNA__584__Y
*665 ANTENNA__586__X
*666 ANTENNA__588__X
*667 ANTENNA__589__X
*668 ANTENNA__590__Y
*669 ANTENNA__591__X
*670 ANTENNA__609__A
*671 ANTENNA__610__A
*672 ANTENNA__614__A
*673 ANTENNA__615__A
*674 ANTENNA__616__A
*675 ANTENNA__617__A
*676 ANTENNA__629__A
*677 ANTENNA__630__A
*678 ANTENNA__631__A
*679 ANTENNA__633__A
*680 ANTENNA__634__A
*681 ANTENNA__635__A
*682 ANTENNA__636__A
*683 ANTENNA__663__A
*684 ANTENNA__664__A
*685 ANTENNA__665__A
*686 ANTENNA__671__A
*687 ANTENNA__672__A
*688 ANTENNA__673__A
*689 ANTENNA__674__A
*690 ANTENNA_clkbuf_0_wb_clk_i_A
*691 ANTENNA_clkbuf_0_wb_clk_i_X
*692 ANTENNA_clkbuf_3_0__f_wb_clk_i_A
*693 ANTENNA_clkbuf_3_1__f_wb_clk_i_A
*694 ANTENNA_clkbuf_3_2__f_wb_clk_i_A
*695 ANTENNA_clkbuf_3_3__f_wb_clk_i_A
*696 ANTENNA_clkbuf_3_4__f_wb_clk_i_A
*697 ANTENNA_clkbuf_3_5__f_wb_clk_i_A
*698 ANTENNA_clkbuf_3_6__f_wb_clk_i_A
*699 ANTENNA_clkbuf_3_7__f_wb_clk_i_A
*700 ANTENNA_fanout13_A
*701 ANTENNA_fanout14_A
*702 ANTENNA_fanout14_X
*703 ANTENNA_fanout15_A
*704 ANTENNA_fanout16_A
*705 ANTENNA_fanout17_A
*706 ANTENNA_fanout18_A
*707 ANTENNA_fanout19_A
*708 ANTENNA_fanout19_X
*709 ANTENNA_input1_A
*710 ANTENNA_input1_X
*711 ANTENNA_output10_A
*712 ANTENNA_output11_A
*713 ANTENNA_output12_A
*714 ANTENNA_output2_A
*715 ANTENNA_output3_A
*716 ANTENNA_output4_A
*717 ANTENNA_output5_A
*718 ANTENNA_output6_A
*719 ANTENNA_output8_A
*720 ANTENNA_output9_A
*721 FILLER_0_109
*722 FILLER_0_111
*723 FILLER_0_113
*724 FILLER_0_125
*725 FILLER_0_137
*726 FILLER_0_139
*727 FILLER_0_141
*728 FILLER_0_15
*729 FILLER_0_153
*730 FILLER_0_165
*731 FILLER_0_167
*732 FILLER_0_169
*733 FILLER_0_181
*734 FILLER_0_193
*735 FILLER_0_195
*736 FILLER_0_197
*737 FILLER_0_209
*738 FILLER_0_221
*739 FILLER_0_223
*740 FILLER_0_225
*741 FILLER_0_237
*742 FILLER_0_249
*743 FILLER_0_251
*744 FILLER_0_253
*745 FILLER_0_265
*746 FILLER_0_27
*747 FILLER_0_277
*748 FILLER_0_279
*749 FILLER_0_281
*750 FILLER_0_29
*751 FILLER_0_293
*752 FILLER_0_3
*753 FILLER_0_305
*754 FILLER_0_307
*755 FILLER_0_309
*756 FILLER_0_321
*757 FILLER_0_333
*758 FILLER_0_335
*759 FILLER_0_337
*760 FILLER_0_349
*761 FILLER_0_361
*762 FILLER_0_363
*763 FILLER_0_365
*764 FILLER_0_377
*765 FILLER_0_389
*766 FILLER_0_391
*767 FILLER_0_393
*768 FILLER_0_405
*769 FILLER_0_41
*770 FILLER_0_53
*771 FILLER_0_55
*772 FILLER_0_57
*773 FILLER_0_69
*774 FILLER_0_81
*775 FILLER_0_83
*776 FILLER_0_85
*777 FILLER_0_97
*778 FILLER_1000_109
*779 FILLER_1000_121
*780 FILLER_1000_133
*781 FILLER_1000_137
*782 FILLER_1000_139
*783 FILLER_1000_141
*784 FILLER_1000_15
*785 FILLER_1000_153
*786 FILLER_1000_165
*787 FILLER_1000_177
*788 FILLER_1000_189
*789 FILLER_1000_193
*790 FILLER_1000_195
*791 FILLER_1000_197
*792 FILLER_1000_209
*793 FILLER_1000_221
*794 FILLER_1000_233
*795 FILLER_1000_245
*796 FILLER_1000_249
*797 FILLER_1000_251
*798 FILLER_1000_253
*799 FILLER_1000_265
*800 FILLER_1000_27
*801 FILLER_1000_277
*802 FILLER_1000_289
*803 FILLER_1000_29
*804 FILLER_1000_3
*805 FILLER_1000_301
*806 FILLER_1000_305
*807 FILLER_1000_307
*808 FILLER_1000_309
*809 FILLER_1000_321
*810 FILLER_1000_333
*811 FILLER_1000_345
*812 FILLER_1000_357
*813 FILLER_1000_361
*814 FILLER_1000_363
*815 FILLER_1000_365
*816 FILLER_1000_377
*817 FILLER_1000_389
*818 FILLER_1000_401
*819 FILLER_1000_405
*820 FILLER_1000_41
*821 FILLER_1000_53
*822 FILLER_1000_65
*823 FILLER_1000_77
*824 FILLER_1000_81
*825 FILLER_1000_83
*826 FILLER_1000_85
*827 FILLER_1000_97
*828 FILLER_1001_105
*829 FILLER_1001_109
*830 FILLER_1001_111
*831 FILLER_1001_113
*832 FILLER_1001_125
*833 FILLER_1001_137
*834 FILLER_1001_149
*835 FILLER_1001_15
*836 FILLER_1001_161
*837 FILLER_1001_165
*838 FILLER_1001_167
*839 FILLER_1001_169
*840 FILLER_1001_181
*841 FILLER_1001_193
*842 FILLER_1001_205
*843 FILLER_1001_217
*844 FILLER_1001_221
*845 FILLER_1001_223
*846 FILLER_1001_225
*847 FILLER_1001_237
*848 FILLER_1001_249
*849 FILLER_1001_261
*850 FILLER_1001_27
*851 FILLER_1001_273
*852 FILLER_1001_277
*853 FILLER_1001_279
*854 FILLER_1001_281
*855 FILLER_1001_293
*856 FILLER_1001_3
*857 FILLER_1001_305
*858 FILLER_1001_317
*859 FILLER_1001_329
*860 FILLER_1001_333
*861 FILLER_1001_335
*862 FILLER_1001_337
*863 FILLER_1001_349
*864 FILLER_1001_361
*865 FILLER_1001_373
*866 FILLER_1001_385
*867 FILLER_1001_389
*868 FILLER_1001_39
*869 FILLER_1001_391
*870 FILLER_1001_393
*871 FILLER_1001_405
*872 FILLER_1001_51
*873 FILLER_1001_55
*874 FILLER_1001_57
*875 FILLER_1001_69
*876 FILLER_1001_81
*877 FILLER_1001_93
*878 FILLER_1002_109
*879 FILLER_1002_121
*880 FILLER_1002_133
*881 FILLER_1002_137
*882 FILLER_1002_139
*883 FILLER_1002_141
*884 FILLER_1002_15
*885 FILLER_1002_153
*886 FILLER_1002_165
*887 FILLER_1002_177
*888 FILLER_1002_189
*889 FILLER_1002_193
*890 FILLER_1002_195
*891 FILLER_1002_197
*892 FILLER_1002_209
*893 FILLER_1002_221
*894 FILLER_1002_233
*895 FILLER_1002_245
*896 FILLER_1002_249
*897 FILLER_1002_251
*898 FILLER_1002_253
*899 FILLER_1002_265
*900 FILLER_1002_27
*901 FILLER_1002_277
*902 FILLER_1002_289
*903 FILLER_1002_29
*904 FILLER_1002_3
*905 FILLER_1002_301
*906 FILLER_1002_305
*907 FILLER_1002_307
*908 FILLER_1002_309
*909 FILLER_1002_321
*910 FILLER_1002_333
*911 FILLER_1002_345
*912 FILLER_1002_357
*913 FILLER_1002_361
*914 FILLER_1002_363
*915 FILLER_1002_365
*916 FILLER_1002_377
*917 FILLER_1002_389
*918 FILLER_1002_401
*919 FILLER_1002_405
*920 FILLER_1002_41
*921 FILLER_1002_53
*922 FILLER_1002_65
*923 FILLER_1002_77
*924 FILLER_1002_81
*925 FILLER_1002_83
*926 FILLER_1002_85
*927 FILLER_1002_97
*928 FILLER_1003_105
*929 FILLER_1003_109
*930 FILLER_1003_111
*931 FILLER_1003_113
*932 FILLER_1003_125
*933 FILLER_1003_137
*934 FILLER_1003_149
*935 FILLER_1003_15
*936 FILLER_1003_161
*937 FILLER_1003_165
*938 FILLER_1003_167
*939 FILLER_1003_169
*940 FILLER_1003_181
*941 FILLER_1003_193
*942 FILLER_1003_205
*943 FILLER_1003_217
*944 FILLER_1003_221
*945 FILLER_1003_223
*946 FILLER_1003_225
*947 FILLER_1003_237
*948 FILLER_1003_249
*949 FILLER_1003_261
*950 FILLER_1003_27
*951 FILLER_1003_273
*952 FILLER_1003_277
*953 FILLER_1003_279
*954 FILLER_1003_281
*955 FILLER_1003_293
*956 FILLER_1003_3
*957 FILLER_1003_305
*958 FILLER_1003_317
*959 FILLER_1003_329
*960 FILLER_1003_333
*961 FILLER_1003_335
*962 FILLER_1003_337
*963 FILLER_1003_349
*964 FILLER_1003_361
*965 FILLER_1003_373
*966 FILLER_1003_385
*967 FILLER_1003_389
*968 FILLER_1003_39
*969 FILLER_1003_391
*970 FILLER_1003_393
*971 FILLER_1003_405
*972 FILLER_1003_51
*973 FILLER_1003_55
*974 FILLER_1003_57
*975 FILLER_1003_69
*976 FILLER_1003_81
*977 FILLER_1003_93
*978 FILLER_1004_109
*979 FILLER_1004_121
*980 FILLER_1004_133
*981 FILLER_1004_137
*982 FILLER_1004_139
*983 FILLER_1004_141
*984 FILLER_1004_153
*985 FILLER_1004_165
*986 FILLER_1004_177
*987 FILLER_1004_189
*988 FILLER_1004_193
*989 FILLER_1004_195
*990 FILLER_1004_197
*991 FILLER_1004_209
*992 FILLER_1004_21
*993 FILLER_1004_221
*994 FILLER_1004_233
*995 FILLER_1004_245
*996 FILLER_1004_249
*997 FILLER_1004_25
*998 FILLER_1004_251
*999 FILLER_1004_253
*1000 FILLER_1004_265
*1001 FILLER_1004_27
*1002 FILLER_1004_277
*1003 FILLER_1004_289
*1004 FILLER_1004_29
*1005 FILLER_1004_301
*1006 FILLER_1004_305
*1007 FILLER_1004_307
*1008 FILLER_1004_309
*1009 FILLER_1004_321
*1010 FILLER_1004_333
*1011 FILLER_1004_345
*1012 FILLER_1004_357
*1013 FILLER_1004_361
*1014 FILLER_1004_363
*1015 FILLER_1004_365
*1016 FILLER_1004_377
*1017 FILLER_1004_389
*1018 FILLER_1004_401
*1019 FILLER_1004_405
*1020 FILLER_1004_41
*1021 FILLER_1004_53
*1022 FILLER_1004_65
*1023 FILLER_1004_77
*1024 FILLER_1004_81
*1025 FILLER_1004_83
*1026 FILLER_1004_85
*1027 FILLER_1004_9
*1028 FILLER_1004_97
*1029 FILLER_1005_105
*1030 FILLER_1005_109
*1031 FILLER_1005_111
*1032 FILLER_1005_113
*1033 FILLER_1005_125
*1034 FILLER_1005_137
*1035 FILLER_1005_149
*1036 FILLER_1005_15
*1037 FILLER_1005_161
*1038 FILLER_1005_165
*1039 FILLER_1005_167
*1040 FILLER_1005_169
*1041 FILLER_1005_181
*1042 FILLER_1005_193
*1043 FILLER_1005_205
*1044 FILLER_1005_217
*1045 FILLER_1005_221
*1046 FILLER_1005_223
*1047 FILLER_1005_225
*1048 FILLER_1005_237
*1049 FILLER_1005_249
*1050 FILLER_1005_261
*1051 FILLER_1005_27
*1052 FILLER_1005_273
*1053 FILLER_1005_277
*1054 FILLER_1005_279
*1055 FILLER_1005_281
*1056 FILLER_1005_293
*1057 FILLER_1005_3
*1058 FILLER_1005_305
*1059 FILLER_1005_317
*1060 FILLER_1005_329
*1061 FILLER_1005_333
*1062 FILLER_1005_335
*1063 FILLER_1005_337
*1064 FILLER_1005_349
*1065 FILLER_1005_361
*1066 FILLER_1005_373
*1067 FILLER_1005_385
*1068 FILLER_1005_389
*1069 FILLER_1005_39
*1070 FILLER_1005_391
*1071 FILLER_1005_393
*1072 FILLER_1005_405
*1073 FILLER_1005_51
*1074 FILLER_1005_55
*1075 FILLER_1005_57
*1076 FILLER_1005_69
*1077 FILLER_1005_81
*1078 FILLER_1005_93
*1079 FILLER_1006_109
*1080 FILLER_1006_121
*1081 FILLER_1006_133
*1082 FILLER_1006_137
*1083 FILLER_1006_139
*1084 FILLER_1006_141
*1085 FILLER_1006_15
*1086 FILLER_1006_153
*1087 FILLER_1006_165
*1088 FILLER_1006_177
*1089 FILLER_1006_189
*1090 FILLER_1006_193
*1091 FILLER_1006_195
*1092 FILLER_1006_197
*1093 FILLER_1006_209
*1094 FILLER_1006_221
*1095 FILLER_1006_233
*1096 FILLER_1006_245
*1097 FILLER_1006_249
*1098 FILLER_1006_251
*1099 FILLER_1006_253
*1100 FILLER_1006_265
*1101 FILLER_1006_27
*1102 FILLER_1006_277
*1103 FILLER_1006_289
*1104 FILLER_1006_29
*1105 FILLER_1006_3
*1106 FILLER_1006_301
*1107 FILLER_1006_305
*1108 FILLER_1006_307
*1109 FILLER_1006_309
*1110 FILLER_1006_321
*1111 FILLER_1006_333
*1112 FILLER_1006_345
*1113 FILLER_1006_357
*1114 FILLER_1006_361
*1115 FILLER_1006_363
*1116 FILLER_1006_365
*1117 FILLER_1006_377
*1118 FILLER_1006_389
*1119 FILLER_1006_401
*1120 FILLER_1006_405
*1121 FILLER_1006_41
*1122 FILLER_1006_53
*1123 FILLER_1006_65
*1124 FILLER_1006_77
*1125 FILLER_1006_81
*1126 FILLER_1006_83
*1127 FILLER_1006_85
*1128 FILLER_1006_97
*1129 FILLER_1007_105
*1130 FILLER_1007_109
*1131 FILLER_1007_111
*1132 FILLER_1007_113
*1133 FILLER_1007_125
*1134 FILLER_1007_137
*1135 FILLER_1007_149
*1136 FILLER_1007_15
*1137 FILLER_1007_161
*1138 FILLER_1007_165
*1139 FILLER_1007_167
*1140 FILLER_1007_169
*1141 FILLER_1007_181
*1142 FILLER_1007_193
*1143 FILLER_1007_205
*1144 FILLER_1007_217
*1145 FILLER_1007_221
*1146 FILLER_1007_223
*1147 FILLER_1007_225
*1148 FILLER_1007_237
*1149 FILLER_1007_249
*1150 FILLER_1007_261
*1151 FILLER_1007_27
*1152 FILLER_1007_273
*1153 FILLER_1007_277
*1154 FILLER_1007_279
*1155 FILLER_1007_281
*1156 FILLER_1007_293
*1157 FILLER_1007_3
*1158 FILLER_1007_305
*1159 FILLER_1007_317
*1160 FILLER_1007_329
*1161 FILLER_1007_333
*1162 FILLER_1007_335
*1163 FILLER_1007_337
*1164 FILLER_1007_349
*1165 FILLER_1007_361
*1166 FILLER_1007_373
*1167 FILLER_1007_385
*1168 FILLER_1007_389
*1169 FILLER_1007_39
*1170 FILLER_1007_391
*1171 FILLER_1007_393
*1172 FILLER_1007_405
*1173 FILLER_1007_51
*1174 FILLER_1007_55
*1175 FILLER_1007_57
*1176 FILLER_1007_69
*1177 FILLER_1007_81
*1178 FILLER_1007_93
*1179 FILLER_1008_109
*1180 FILLER_1008_121
*1181 FILLER_1008_133
*1182 FILLER_1008_137
*1183 FILLER_1008_139
*1184 FILLER_1008_141
*1185 FILLER_1008_15
*1186 FILLER_1008_153
*1187 FILLER_1008_165
*1188 FILLER_1008_177
*1189 FILLER_1008_189
*1190 FILLER_1008_193
*1191 FILLER_1008_195
*1192 FILLER_1008_197
*1193 FILLER_1008_209
*1194 FILLER_1008_221
*1195 FILLER_1008_233
*1196 FILLER_1008_245
*1197 FILLER_1008_249
*1198 FILLER_1008_251
*1199 FILLER_1008_253
*1200 FILLER_1008_265
*1201 FILLER_1008_27
*1202 FILLER_1008_277
*1203 FILLER_1008_289
*1204 FILLER_1008_29
*1205 FILLER_1008_3
*1206 FILLER_1008_301
*1207 FILLER_1008_305
*1208 FILLER_1008_307
*1209 FILLER_1008_309
*1210 FILLER_1008_321
*1211 FILLER_1008_333
*1212 FILLER_1008_345
*1213 FILLER_1008_357
*1214 FILLER_1008_361
*1215 FILLER_1008_363
*1216 FILLER_1008_365
*1217 FILLER_1008_377
*1218 FILLER_1008_389
*1219 FILLER_1008_401
*1220 FILLER_1008_405
*1221 FILLER_1008_41
*1222 FILLER_1008_53
*1223 FILLER_1008_65
*1224 FILLER_1008_77
*1225 FILLER_1008_81
*1226 FILLER_1008_83
*1227 FILLER_1008_85
*1228 FILLER_1008_97
*1229 FILLER_1009_105
*1230 FILLER_1009_109
*1231 FILLER_1009_111
*1232 FILLER_1009_113
*1233 FILLER_1009_125
*1234 FILLER_1009_137
*1235 FILLER_1009_149
*1236 FILLER_1009_15
*1237 FILLER_1009_161
*1238 FILLER_1009_165
*1239 FILLER_1009_167
*1240 FILLER_1009_169
*1241 FILLER_1009_181
*1242 FILLER_1009_193
*1243 FILLER_1009_205
*1244 FILLER_1009_217
*1245 FILLER_1009_221
*1246 FILLER_1009_223
*1247 FILLER_1009_225
*1248 FILLER_1009_237
*1249 FILLER_1009_249
*1250 FILLER_1009_261
*1251 FILLER_1009_27
*1252 FILLER_1009_273
*1253 FILLER_1009_277
*1254 FILLER_1009_279
*1255 FILLER_1009_281
*1256 FILLER_1009_293
*1257 FILLER_1009_3
*1258 FILLER_1009_305
*1259 FILLER_1009_317
*1260 FILLER_1009_329
*1261 FILLER_1009_333
*1262 FILLER_1009_335
*1263 FILLER_1009_337
*1264 FILLER_1009_349
*1265 FILLER_1009_361
*1266 FILLER_1009_373
*1267 FILLER_1009_385
*1268 FILLER_1009_389
*1269 FILLER_1009_39
*1270 FILLER_1009_391
*1271 FILLER_1009_393
*1272 FILLER_1009_405
*1273 FILLER_1009_51
*1274 FILLER_1009_55
*1275 FILLER_1009_57
*1276 FILLER_1009_69
*1277 FILLER_1009_81
*1278 FILLER_1009_93
*1279 FILLER_100_109
*1280 FILLER_100_121
*1281 FILLER_100_133
*1282 FILLER_100_137
*1283 FILLER_100_139
*1284 FILLER_100_141
*1285 FILLER_100_15
*1286 FILLER_100_153
*1287 FILLER_100_165
*1288 FILLER_100_177
*1289 FILLER_100_189
*1290 FILLER_100_193
*1291 FILLER_100_195
*1292 FILLER_100_197
*1293 FILLER_100_209
*1294 FILLER_100_221
*1295 FILLER_100_233
*1296 FILLER_100_245
*1297 FILLER_100_249
*1298 FILLER_100_251
*1299 FILLER_100_253
*1300 FILLER_100_265
*1301 FILLER_100_27
*1302 FILLER_100_277
*1303 FILLER_100_289
*1304 FILLER_100_29
*1305 FILLER_100_3
*1306 FILLER_100_301
*1307 FILLER_100_305
*1308 FILLER_100_307
*1309 FILLER_100_309
*1310 FILLER_100_321
*1311 FILLER_100_333
*1312 FILLER_100_345
*1313 FILLER_100_357
*1314 FILLER_100_361
*1315 FILLER_100_363
*1316 FILLER_100_365
*1317 FILLER_100_377
*1318 FILLER_100_389
*1319 FILLER_100_401
*1320 FILLER_100_405
*1321 FILLER_100_41
*1322 FILLER_100_53
*1323 FILLER_100_65
*1324 FILLER_100_77
*1325 FILLER_100_81
*1326 FILLER_100_83
*1327 FILLER_100_85
*1328 FILLER_100_97
*1329 FILLER_1010_109
*1330 FILLER_1010_121
*1331 FILLER_1010_133
*1332 FILLER_1010_137
*1333 FILLER_1010_139
*1334 FILLER_1010_141
*1335 FILLER_1010_15
*1336 FILLER_1010_153
*1337 FILLER_1010_165
*1338 FILLER_1010_177
*1339 FILLER_1010_189
*1340 FILLER_1010_193
*1341 FILLER_1010_195
*1342 FILLER_1010_197
*1343 FILLER_1010_209
*1344 FILLER_1010_221
*1345 FILLER_1010_233
*1346 FILLER_1010_245
*1347 FILLER_1010_249
*1348 FILLER_1010_251
*1349 FILLER_1010_253
*1350 FILLER_1010_265
*1351 FILLER_1010_27
*1352 FILLER_1010_277
*1353 FILLER_1010_289
*1354 FILLER_1010_29
*1355 FILLER_1010_3
*1356 FILLER_1010_301
*1357 FILLER_1010_305
*1358 FILLER_1010_307
*1359 FILLER_1010_309
*1360 FILLER_1010_321
*1361 FILLER_1010_333
*1362 FILLER_1010_345
*1363 FILLER_1010_357
*1364 FILLER_1010_361
*1365 FILLER_1010_363
*1366 FILLER_1010_365
*1367 FILLER_1010_377
*1368 FILLER_1010_389
*1369 FILLER_1010_401
*1370 FILLER_1010_405
*1371 FILLER_1010_41
*1372 FILLER_1010_53
*1373 FILLER_1010_65
*1374 FILLER_1010_77
*1375 FILLER_1010_81
*1376 FILLER_1010_83
*1377 FILLER_1010_85
*1378 FILLER_1010_97
*1379 FILLER_1011_105
*1380 FILLER_1011_109
*1381 FILLER_1011_111
*1382 FILLER_1011_113
*1383 FILLER_1011_125
*1384 FILLER_1011_137
*1385 FILLER_1011_149
*1386 FILLER_1011_15
*1387 FILLER_1011_161
*1388 FILLER_1011_165
*1389 FILLER_1011_167
*1390 FILLER_1011_169
*1391 FILLER_1011_181
*1392 FILLER_1011_193
*1393 FILLER_1011_205
*1394 FILLER_1011_217
*1395 FILLER_1011_221
*1396 FILLER_1011_223
*1397 FILLER_1011_225
*1398 FILLER_1011_237
*1399 FILLER_1011_249
*1400 FILLER_1011_261
*1401 FILLER_1011_27
*1402 FILLER_1011_273
*1403 FILLER_1011_277
*1404 FILLER_1011_279
*1405 FILLER_1011_281
*1406 FILLER_1011_293
*1407 FILLER_1011_3
*1408 FILLER_1011_305
*1409 FILLER_1011_317
*1410 FILLER_1011_329
*1411 FILLER_1011_333
*1412 FILLER_1011_335
*1413 FILLER_1011_337
*1414 FILLER_1011_349
*1415 FILLER_1011_361
*1416 FILLER_1011_373
*1417 FILLER_1011_385
*1418 FILLER_1011_389
*1419 FILLER_1011_39
*1420 FILLER_1011_391
*1421 FILLER_1011_393
*1422 FILLER_1011_405
*1423 FILLER_1011_51
*1424 FILLER_1011_55
*1425 FILLER_1011_57
*1426 FILLER_1011_69
*1427 FILLER_1011_81
*1428 FILLER_1011_93
*1429 FILLER_1012_109
*1430 FILLER_1012_121
*1431 FILLER_1012_133
*1432 FILLER_1012_137
*1433 FILLER_1012_139
*1434 FILLER_1012_141
*1435 FILLER_1012_15
*1436 FILLER_1012_153
*1437 FILLER_1012_165
*1438 FILLER_1012_177
*1439 FILLER_1012_189
*1440 FILLER_1012_193
*1441 FILLER_1012_195
*1442 FILLER_1012_197
*1443 FILLER_1012_209
*1444 FILLER_1012_221
*1445 FILLER_1012_233
*1446 FILLER_1012_245
*1447 FILLER_1012_249
*1448 FILLER_1012_251
*1449 FILLER_1012_253
*1450 FILLER_1012_265
*1451 FILLER_1012_27
*1452 FILLER_1012_277
*1453 FILLER_1012_289
*1454 FILLER_1012_29
*1455 FILLER_1012_3
*1456 FILLER_1012_301
*1457 FILLER_1012_305
*1458 FILLER_1012_307
*1459 FILLER_1012_309
*1460 FILLER_1012_321
*1461 FILLER_1012_333
*1462 FILLER_1012_345
*1463 FILLER_1012_357
*1464 FILLER_1012_361
*1465 FILLER_1012_363
*1466 FILLER_1012_365
*1467 FILLER_1012_377
*1468 FILLER_1012_389
*1469 FILLER_1012_401
*1470 FILLER_1012_405
*1471 FILLER_1012_41
*1472 FILLER_1012_53
*1473 FILLER_1012_65
*1474 FILLER_1012_77
*1475 FILLER_1012_81
*1476 FILLER_1012_83
*1477 FILLER_1012_85
*1478 FILLER_1012_97
*1479 FILLER_1013_105
*1480 FILLER_1013_109
*1481 FILLER_1013_111
*1482 FILLER_1013_113
*1483 FILLER_1013_125
*1484 FILLER_1013_137
*1485 FILLER_1013_149
*1486 FILLER_1013_15
*1487 FILLER_1013_161
*1488 FILLER_1013_165
*1489 FILLER_1013_167
*1490 FILLER_1013_169
*1491 FILLER_1013_181
*1492 FILLER_1013_193
*1493 FILLER_1013_205
*1494 FILLER_1013_217
*1495 FILLER_1013_221
*1496 FILLER_1013_223
*1497 FILLER_1013_225
*1498 FILLER_1013_237
*1499 FILLER_1013_249
*1500 FILLER_1013_261
*1501 FILLER_1013_27
*1502 FILLER_1013_273
*1503 FILLER_1013_277
*1504 FILLER_1013_279
*1505 FILLER_1013_281
*1506 FILLER_1013_293
*1507 FILLER_1013_3
*1508 FILLER_1013_305
*1509 FILLER_1013_317
*1510 FILLER_1013_329
*1511 FILLER_1013_333
*1512 FILLER_1013_335
*1513 FILLER_1013_337
*1514 FILLER_1013_349
*1515 FILLER_1013_361
*1516 FILLER_1013_373
*1517 FILLER_1013_385
*1518 FILLER_1013_389
*1519 FILLER_1013_39
*1520 FILLER_1013_391
*1521 FILLER_1013_393
*1522 FILLER_1013_405
*1523 FILLER_1013_51
*1524 FILLER_1013_55
*1525 FILLER_1013_57
*1526 FILLER_1013_69
*1527 FILLER_1013_81
*1528 FILLER_1013_93
*1529 FILLER_1014_109
*1530 FILLER_1014_121
*1531 FILLER_1014_133
*1532 FILLER_1014_137
*1533 FILLER_1014_139
*1534 FILLER_1014_141
*1535 FILLER_1014_15
*1536 FILLER_1014_153
*1537 FILLER_1014_165
*1538 FILLER_1014_177
*1539 FILLER_1014_189
*1540 FILLER_1014_193
*1541 FILLER_1014_195
*1542 FILLER_1014_197
*1543 FILLER_1014_209
*1544 FILLER_1014_221
*1545 FILLER_1014_233
*1546 FILLER_1014_245
*1547 FILLER_1014_249
*1548 FILLER_1014_251
*1549 FILLER_1014_253
*1550 FILLER_1014_265
*1551 FILLER_1014_27
*1552 FILLER_1014_277
*1553 FILLER_1014_289
*1554 FILLER_1014_29
*1555 FILLER_1014_3
*1556 FILLER_1014_301
*1557 FILLER_1014_305
*1558 FILLER_1014_307
*1559 FILLER_1014_309
*1560 FILLER_1014_321
*1561 FILLER_1014_333
*1562 FILLER_1014_345
*1563 FILLER_1014_357
*1564 FILLER_1014_361
*1565 FILLER_1014_363
*1566 FILLER_1014_365
*1567 FILLER_1014_377
*1568 FILLER_1014_389
*1569 FILLER_1014_401
*1570 FILLER_1014_405
*1571 FILLER_1014_41
*1572 FILLER_1014_53
*1573 FILLER_1014_65
*1574 FILLER_1014_77
*1575 FILLER_1014_81
*1576 FILLER_1014_83
*1577 FILLER_1014_85
*1578 FILLER_1014_97
*1579 FILLER_1015_105
*1580 FILLER_1015_109
*1581 FILLER_1015_111
*1582 FILLER_1015_113
*1583 FILLER_1015_125
*1584 FILLER_1015_137
*1585 FILLER_1015_149
*1586 FILLER_1015_15
*1587 FILLER_1015_161
*1588 FILLER_1015_165
*1589 FILLER_1015_167
*1590 FILLER_1015_169
*1591 FILLER_1015_181
*1592 FILLER_1015_193
*1593 FILLER_1015_205
*1594 FILLER_1015_217
*1595 FILLER_1015_221
*1596 FILLER_1015_223
*1597 FILLER_1015_225
*1598 FILLER_1015_237
*1599 FILLER_1015_249
*1600 FILLER_1015_261
*1601 FILLER_1015_27
*1602 FILLER_1015_273
*1603 FILLER_1015_277
*1604 FILLER_1015_279
*1605 FILLER_1015_281
*1606 FILLER_1015_293
*1607 FILLER_1015_3
*1608 FILLER_1015_305
*1609 FILLER_1015_317
*1610 FILLER_1015_329
*1611 FILLER_1015_333
*1612 FILLER_1015_335
*1613 FILLER_1015_337
*1614 FILLER_1015_349
*1615 FILLER_1015_361
*1616 FILLER_1015_373
*1617 FILLER_1015_385
*1618 FILLER_1015_389
*1619 FILLER_1015_39
*1620 FILLER_1015_391
*1621 FILLER_1015_393
*1622 FILLER_1015_405
*1623 FILLER_1015_51
*1624 FILLER_1015_55
*1625 FILLER_1015_57
*1626 FILLER_1015_69
*1627 FILLER_1015_81
*1628 FILLER_1015_93
*1629 FILLER_1016_109
*1630 FILLER_1016_121
*1631 FILLER_1016_133